Version 4
SHEET 1 1244 1040
WIRE 240 -272 224 -272
WIRE 320 -224 320 -272
WIRE 432 -224 400 -224
WIRE 480 -224 432 -224
WIRE 576 -224 496 -224
WIRE 320 -208 320 -224
WIRE 320 -208 288 -208
WIRE 160 -192 32 -192
WIRE 224 -192 160 -192
WIRE 32 -176 32 -192
WIRE 320 -176 288 -176
WIRE 256 -144 256 -160
WIRE 320 -144 320 -176
WIRE 432 -144 400 -144
WIRE 496 -144 496 -224
WIRE 496 -144 432 -144
WIRE 480 -112 480 -224
WIRE 480 -112 432 -112
WIRE 496 -80 496 -144
WIRE 160 -64 160 -192
WIRE 208 -64 160 -64
WIRE 320 -64 320 -144
WIRE 320 -64 288 -64
WIRE 432 64 432 -112
WIRE -208 80 -336 80
WIRE 736 80 736 64
WIRE -448 96 -512 96
WIRE 128 112 128 96
WIRE 32 128 32 -96
WIRE 96 128 32 128
WIRE 432 128 416 128
WIRE 384 144 160 144
WIRE -160 160 -208 160
WIRE -96 160 -160 160
WIRE 96 160 -96 160
WIRE -16 176 -48 176
WIRE -512 192 -512 176
WIRE -448 192 -448 176
WIRE -448 192 -512 192
WIRE -336 192 -336 80
WIRE -336 192 -448 192
WIRE 128 192 128 176
WIRE -448 208 -448 192
WIRE 576 208 576 -224
WIRE 832 208 704 208
WIRE 432 224 432 160
WIRE 496 224 496 0
WIRE 496 224 432 224
WIRE -48 240 -48 224
WIRE 688 288 640 288
WIRE 704 288 704 208
WIRE 736 288 704 288
WIRE -448 304 -448 272
WIRE 224 304 208 304
WIRE 576 304 576 288
WIRE 576 304 480 304
WIRE 832 304 832 208
WIRE 832 304 800 304
WIRE 848 304 832 304
WIRE 688 320 688 288
WIRE 736 320 688 320
WIRE -16 336 -16 176
WIRE 304 352 304 304
WIRE 416 352 384 352
WIRE 448 352 416 352
WIRE 304 368 304 352
WIRE 304 368 272 368
WIRE 144 384 64 384
WIRE 208 384 144 384
WIRE 304 400 272 400
WIRE 240 432 240 416
WIRE 304 432 304 400
WIRE 416 432 384 432
WIRE 480 432 480 304
WIRE 480 432 416 432
WIRE 512 432 480 432
WIRE 448 480 448 352
WIRE 448 480 416 480
WIRE 64 496 64 464
WIRE 64 496 0 496
WIRE 480 496 480 432
WIRE 144 512 144 384
WIRE 192 512 144 512
WIRE 304 512 304 432
WIRE 304 512 272 512
WIRE 416 624 416 480
WIRE 96 672 96 656
WIRE 0 688 0 496
WIRE 64 688 0 688
WIRE 368 704 128 704
WIRE -160 720 -160 160
WIRE 64 720 -160 720
WIRE 96 752 96 736
WIRE 416 768 416 720
WIRE 480 768 480 576
WIRE 480 768 416 768
FLAG 736 160 0
FLAG 736 64 +V
FLAG 128 96 +V
FLAG 256 -144 +V
FLAG 768 272 +V
FLAG 640 208 +V
FLAG 640 368 0
FLAG 768 336 0
FLAG 848 304 vgnd
IOPIN 848 304 Out
FLAG 256 -224 0
FLAG 128 192 0
FLAG 224 -272 vgnd
IOPIN 224 -272 Out
FLAG -448 96 +V
FLAG -208 240 vgnd
IOPIN -208 240 Out
FLAG -448 304 vgnd
IOPIN -448 304 Out
FLAG -96 240 vgnd
IOPIN -96 240 Out
FLAG -48 240 0
FLAG -16 416 0
FLAG 96 656 +V
FLAG 240 432 +V
FLAG 240 352 0
FLAG 96 752 0
FLAG 208 304 vgnd
IOPIN 208 304 Out
FLAG 512 432 0
SYMBOL res 416 -240 R0
SYMATTR InstName R2
SYMATTR Value 0.1
SYMBOL res 416 -160 R90
WINDOW 0 0 56 VBottom 2
WINDOW 3 32 56 VTop 2
SYMATTR InstName R3
SYMATTR Value 3k
SYMBOL res 416 -240 R90
WINDOW 0 0 56 VBottom 2
WINDOW 3 32 56 VTop 2
SYMATTR InstName R4
SYMATTR Value 3k
SYMBOL res 304 -80 R90
WINDOW 0 0 56 VBottom 2
WINDOW 3 32 56 VTop 2
SYMATTR InstName R5
SYMATTR Value 22k
SYMBOL res 336 -288 R90
WINDOW 0 0 56 VBottom 2
WINDOW 3 -15 11 VTop 2
SYMATTR InstName R6
SYMATTR Value 22k
SYMBOL voltage 496 -96 R0
WINDOW 0 24 96 Left 2
WINDOW 3 24 16 Left 2
WINDOW 123 0 0 Left 2
WINDOW 39 0 0 Left 2
SYMATTR InstName V2
SYMATTR Value 5
SYMBOL voltage 736 64 R0
WINDOW 123 0 0 Left 2
WINDOW 39 0 0 Left 2
WINDOW 0 38 30 Left 2
WINDOW 3 41 60 Left 2
SYMATTR InstName V3
SYMATTR Value 15
SYMBOL nmos 384 64 R0
SYMATTR InstName M1
SYMATTR Value irfb7546pbf
SYMATTR Prefix X
SYMBOL res 16 -192 R0
SYMATTR InstName R7
SYMATTR Value 8.2k
SYMBOL Opamps\\LT1014 128 80 R0
SYMATTR InstName U1
SYMBOL Opamps\\LT1014 256 -128 R180
WINDOW 0 19 50 Left 2
SYMATTR InstName U2
SYMBOL Opamps\\LT1014 768 240 R0
SYMATTR InstName U3
SYMBOL res 624 192 R0
SYMATTR InstName R9
SYMATTR Value 8.2k
SYMBOL res 624 272 R0
SYMATTR InstName R10
SYMATTR Value 8.2k
SYMBOL res -224 64 R0
SYMATTR InstName R11
SYMATTR Value 3k
SYMBOL res -224 144 R0
SYMATTR InstName R12
SYMATTR Value 5k
SYMBOL References\\LT1004-1.2 -448 240 R0
SYMATTR InstName U6
SYMBOL res -464 80 R0
SYMATTR InstName R23
SYMATTR Value 8.2k
SYMBOL sw -96 256 R180
SYMATTR InstName S1
SYMBOL voltage -16 320 R0
WINDOW 3 -260 133 Left 2
WINDOW 123 0 0 Left 2
WINDOW 39 0 0 Left 2
SYMATTR Value PULSE(5 0 0 0 0 30m 60m)
SYMATTR InstName V4
SYMBOL res 400 336 R0
SYMATTR InstName R1
SYMATTR Value 0.1
SYMBOL res 400 416 R90
WINDOW 0 0 56 VBottom 2
WINDOW 3 32 56 VTop 2
SYMATTR InstName R13
SYMATTR Value 3k
SYMBOL res 400 336 R90
WINDOW 0 0 56 VBottom 2
WINDOW 3 32 56 VTop 2
SYMATTR InstName R14
SYMATTR Value 3k
SYMBOL res 288 496 R90
WINDOW 0 0 56 VBottom 2
WINDOW 3 32 56 VTop 2
SYMATTR InstName R15
SYMATTR Value 22k
SYMBOL res 320 288 R90
WINDOW 0 0 56 VBottom 2
WINDOW 3 -15 11 VTop 2
SYMATTR InstName R16
SYMATTR Value 22k
SYMBOL voltage 480 480 R0
WINDOW 0 24 96 Left 2
WINDOW 3 24 16 Left 2
WINDOW 123 0 0 Left 2
WINDOW 39 0 0 Left 2
SYMATTR InstName V1
SYMATTR Value 2
SYMBOL nmos 368 624 R0
SYMATTR InstName M2
SYMATTR Value irfb7546pbf
SYMATTR Prefix X
SYMBOL res 48 368 R0
SYMATTR InstName R17
SYMATTR Value 8.2k
SYMBOL Opamps\\LT1014 96 640 R0
SYMATTR InstName U4
SYMBOL Opamps\\LT1014 240 448 R180
WINDOW 0 19 50 Left 2
SYMATTR InstName U5
SYMBOL res -528 80 R0
SYMATTR InstName R19
SYMATTR Value 8.2k
SYMBOL voltage 576 192 R0
WINDOW 123 0 0 Left 2
WINDOW 39 0 0 Left 2
SYMATTR InstName V5
SYMATTR Value 0
TEXT -272 920 Left 2 !.tran 100m
TEXT -632 1000 Left 2 !.inc C:\\Users\\Astri\\Documents\\LTspice\\irfb7546pbf.spi
TEXT -632 960 Left 2 !.model SW sw(ron=1u roff=1000meg vt=2.5 vh=0.2)
