Version 4
SHEET 1 1244 1040
WIRE 48 16 32 16
WIRE 208 16 192 16
WIRE 512 64 384 64
WIRE 576 64 512 64
WIRE -208 80 -336 80
WIRE 736 80 736 64
WIRE -448 96 -512 96
WIRE 128 112 128 96
WIRE 32 128 32 16
WIRE 96 128 32 128
WIRE 432 128 416 128
WIRE 208 144 208 16
WIRE 208 144 160 144
WIRE 336 144 208 144
WIRE -160 160 -208 160
WIRE -96 160 -160 160
WIRE 96 160 -96 160
WIRE 512 160 512 64
WIRE -16 176 -48 176
WIRE -512 192 -512 176
WIRE -448 192 -448 176
WIRE -448 192 -512 192
WIRE -336 192 -336 80
WIRE -336 192 -448 192
WIRE 128 192 128 176
WIRE -448 208 -448 192
WIRE 832 208 704 208
WIRE 32 224 32 128
WIRE 192 224 176 224
WIRE -48 240 -48 224
WIRE 272 272 272 224
WIRE 384 272 384 160
WIRE 384 272 352 272
WIRE 272 288 272 272
WIRE 272 288 240 288
WIRE 688 288 640 288
WIRE 704 288 704 208
WIRE 736 288 704 288
WIRE -448 304 -448 272
WIRE 112 304 32 304
WIRE 176 304 112 304
WIRE 832 304 832 208
WIRE 832 304 800 304
WIRE 848 304 832 304
WIRE 272 320 240 320
WIRE 688 320 688 288
WIRE 736 320 688 320
WIRE -16 336 -16 176
WIRE 208 352 208 336
WIRE 272 352 272 320
WIRE 384 352 352 352
WIRE 512 352 512 240
WIRE 512 352 384 352
WIRE 1120 416 1088 416
WIRE 112 432 112 304
WIRE 160 432 112 432
WIRE 272 432 272 352
WIRE 272 432 240 432
WIRE 16 576 0 576
WIRE 176 576 160 576
WIRE 480 624 352 624
WIRE 480 640 480 624
WIRE 576 640 576 64
WIRE 576 640 480 640
WIRE 96 672 96 656
WIRE 0 688 0 576
WIRE 64 688 0 688
WIRE 400 688 384 688
WIRE 176 704 176 576
WIRE 176 704 128 704
WIRE 304 704 176 704
WIRE -160 720 -160 160
WIRE 64 720 -160 720
WIRE 480 720 480 640
WIRE 96 752 96 736
WIRE 0 784 0 688
WIRE 160 784 144 784
WIRE 240 832 240 784
WIRE 352 832 352 720
WIRE 352 832 320 832
WIRE 240 848 240 832
WIRE 240 848 208 848
WIRE 80 864 0 864
WIRE 144 864 80 864
WIRE 240 880 208 880
WIRE 176 912 176 896
WIRE 240 912 240 880
WIRE 352 912 320 912
WIRE 480 912 480 800
WIRE 480 912 352 912
WIRE 80 992 80 864
WIRE 128 992 80 992
WIRE 240 992 240 912
WIRE 240 992 208 992
FLAG 736 160 0
FLAG 736 64 +V
FLAG 128 96 +V
FLAG 208 352 +V
FLAG 768 272 +V
FLAG 640 208 +V
FLAG 640 368 0
FLAG 768 336 0
FLAG 848 304 vgnd
IOPIN 848 304 Out
FLAG 208 272 0
FLAG 128 192 0
FLAG 176 224 vgnd
IOPIN 176 224 Out
FLAG -448 96 +V
FLAG -208 240 vgnd
IOPIN -208 240 Out
FLAG -448 304 vgnd
IOPIN -448 304 Out
FLAG -96 240 vgnd
IOPIN -96 240 Out
FLAG -48 240 0
FLAG -16 416 0
FLAG 96 656 +V
FLAG 176 912 +V
FLAG 176 832 0
FLAG 96 752 0
FLAG 144 784 vgnd
IOPIN 144 784 Out
FLAG 1120 416 vgnd
IOPIN 1120 416 Out
FLAG 1088 416 0
FLAG 576 640 0
SYMBOL res 368 256 R0
SYMATTR InstName R2
SYMATTR Value 0.1
SYMBOL res 368 336 R90
WINDOW 0 0 56 VBottom 2
WINDOW 3 32 56 VTop 2
SYMATTR InstName R3
SYMATTR Value 3k
SYMBOL res 368 256 R90
WINDOW 0 0 56 VBottom 2
WINDOW 3 32 56 VTop 2
SYMATTR InstName R4
SYMATTR Value 3k
SYMBOL res 256 416 R90
WINDOW 0 0 56 VBottom 2
WINDOW 3 32 56 VTop 2
SYMATTR InstName R5
SYMATTR Value 22k
SYMBOL res 288 208 R90
WINDOW 0 0 56 VBottom 2
WINDOW 3 -15 11 VTop 2
SYMATTR InstName R6
SYMATTR Value 22k
SYMBOL voltage 512 144 R0
WINDOW 0 24 96 Left 2
WINDOW 3 24 16 Left 2
WINDOW 123 0 0 Left 2
WINDOW 39 0 0 Left 2
SYMATTR InstName V2
SYMATTR Value 5
SYMBOL voltage 736 64 R0
WINDOW 123 0 0 Left 2
WINDOW 39 0 0 Left 2
WINDOW 0 38 30 Left 2
WINDOW 3 41 60 Left 2
SYMATTR InstName V3
SYMATTR Value 15
SYMBOL nmos 336 64 R0
SYMATTR InstName M1
SYMATTR Value irfb7546pbf
SYMATTR Prefix X
SYMBOL res 16 208 R0
SYMATTR InstName R7
SYMATTR Value 8.2k
SYMBOL res 208 0 R90
WINDOW 0 0 56 VBottom 2
WINDOW 3 32 56 VTop 2
SYMATTR InstName R8
SYMATTR Value 75
SYMBOL cap 112 0 R90
WINDOW 0 0 32 VBottom 2
WINDOW 3 32 32 VTop 2
SYMATTR InstName C1
SYMATTR Value 150n
SYMBOL Opamps\\LT1014 128 80 R0
SYMATTR InstName U1
SYMBOL Opamps\\LT1014 208 368 R180
WINDOW 0 19 50 Left 2
SYMATTR InstName U2
SYMBOL Opamps\\LT1014 768 240 R0
SYMATTR InstName U3
SYMBOL res 624 192 R0
SYMATTR InstName R9
SYMATTR Value 8.2k
SYMBOL res 624 272 R0
SYMATTR InstName R10
SYMATTR Value 8.2k
SYMBOL res -224 64 R0
SYMATTR InstName R11
SYMATTR Value 3k
SYMBOL res -224 144 R0
SYMATTR InstName R12
SYMATTR Value 5k
SYMBOL References\\LT1004-1.2 -448 240 R0
SYMATTR InstName U6
SYMBOL res -464 80 R0
SYMATTR InstName R23
SYMATTR Value 8.2k
SYMBOL sw -96 256 R180
SYMATTR InstName S1
SYMBOL voltage -16 320 R0
WINDOW 3 -260 133 Left 2
WINDOW 123 0 0 Left 2
WINDOW 39 0 0 Left 2
SYMATTR Value PULSE(5 0 0 0 0 30m 60m)
SYMATTR InstName V4
SYMBOL res 336 816 R0
SYMATTR InstName R1
SYMATTR Value 0.1
SYMBOL res 336 896 R90
WINDOW 0 0 56 VBottom 2
WINDOW 3 32 56 VTop 2
SYMATTR InstName R13
SYMATTR Value 3k
SYMBOL res 336 816 R90
WINDOW 0 0 56 VBottom 2
WINDOW 3 32 56 VTop 2
SYMATTR InstName R14
SYMATTR Value 3k
SYMBOL res 224 976 R90
WINDOW 0 0 56 VBottom 2
WINDOW 3 32 56 VTop 2
SYMATTR InstName R15
SYMATTR Value 22k
SYMBOL res 256 768 R90
WINDOW 0 0 56 VBottom 2
WINDOW 3 -15 11 VTop 2
SYMATTR InstName R16
SYMATTR Value 22k
SYMBOL voltage 480 704 R0
WINDOW 0 24 96 Left 2
WINDOW 3 24 16 Left 2
WINDOW 123 0 0 Left 2
WINDOW 39 0 0 Left 2
SYMATTR InstName V1
SYMATTR Value 2
SYMBOL nmos 304 624 R0
SYMATTR InstName M2
SYMATTR Value irfb7546pbf
SYMATTR Prefix X
SYMBOL res -16 768 R0
SYMATTR InstName R17
SYMATTR Value 8.2k
SYMBOL res 176 560 R90
WINDOW 0 0 56 VBottom 2
WINDOW 3 32 56 VTop 2
SYMATTR InstName R18
SYMATTR Value 75
SYMBOL cap 80 560 R90
WINDOW 0 0 32 VBottom 2
WINDOW 3 32 32 VTop 2
SYMATTR InstName C2
SYMATTR Value 150n
SYMBOL Opamps\\LT1014 96 640 R0
SYMATTR InstName U4
SYMBOL Opamps\\LT1014 176 928 R180
WINDOW 0 19 50 Left 2
SYMATTR InstName U5
SYMBOL res -528 80 R0
SYMATTR InstName R19
SYMATTR Value 8.2k
TEXT -272 920 Left 2 !.tran 100m
TEXT 40 -104 Left 2 !.inc C:\\Users\\Astri\\Documents\\LTspice\\irfb7546pbf.spi
TEXT -664 8 Left 2 !.model SW sw(ron=1u roff=1000meg vt=2.5 vh=0.2)
