Version 4
SHEET 1 1116 680
WIRE 160 128 128 128
WIRE 352 128 256 128
WIRE 416 128 352 128
WIRE 560 128 496 128
WIRE 688 128 560 128
WIRE 752 128 688 128
WIRE -208 160 -208 144
WIRE 240 192 240 176
WIRE 240 192 96 192
WIRE 688 208 608 208
WIRE 96 224 96 192
WIRE 144 256 128 256
WIRE 608 304 608 208
WIRE 608 304 240 304
WIRE 80 320 80 288
WIRE 80 320 32 320
WIRE 112 320 112 288
WIRE 176 320 112 320
WIRE 32 336 32 320
WIRE 320 336 240 336
WIRE 384 336 320 336
WIRE 32 432 32 416
WIRE 320 432 320 416
FLAG 32 432 0
FLAG -208 160 0
FLAG -208 64 v+
FLAG 64 256 v+
FLAG 208 288 v+
FLAG 752 128 out
IOPIN 752 128 Out
FLAG 32 320 ramp
FLAG 688 288 0
FLAG 320 432 0
FLAG 384 336 in
IOPIN 384 336 In
FLAG 352 192 0
FLAG 128 128 v+
FLAG 144 256 0
FLAG 208 352 0
FLAG 560 192 0
SYMBOL Opamps\\LT1014 32 256 R270
WINDOW 3 -34 -15 Left 2
SYMATTR InstName U1
SYMBOL voltage -208 48 R0
WINDOW 123 0 0 Left 2
WINDOW 39 0 0 Left 2
SYMATTR InstName V2
SYMATTR Value 10
SYMBOL Opamps\\LT1014 208 256 M0
SYMATTR InstName U2
SYMBOL res 672 112 R0
SYMATTR InstName R1
SYMATTR Value 10k
SYMBOL res 672 192 R0
SYMATTR InstName R2
SYMATTR Value 10k
SYMBOL voltage 320 320 R0
WINDOW 0 -65 58 Left 2
WINDOW 123 0 0 Left 2
WINDOW 39 0 0 Left 2
SYMATTR InstName V4
SYMATTR Value {vref}
SYMBOL diode 368 192 R180
WINDOW 0 24 64 Left 2
WINDOW 3 24 0 Left 2
SYMATTR InstName D1
SYMATTR Value 1N4148
SYMBOL ind 512 112 R90
WINDOW 0 5 56 VBottom 2
WINDOW 3 32 56 VTop 2
SYMATTR InstName L1
SYMATTR Value 10µ
SYMBOL nmos 160 176 R270
SYMATTR InstName M1
SYMATTR Value IRFB7546PBF
SYMATTR Prefix X
SYMBOL cap 544 128 R0
SYMATTR InstName C1
SYMATTR Value 1µ
SYMBOL voltage 32 320 R0
SYMATTR InstName V1
SYMATTR Value PWL REPEAT FOREVER (0 0 +1m 10 +1m 0 +1m 10 +1m 0) ENDREPEAT
TEXT -218 456 Left 2 !.tran 30m
TEXT -352 528 Left 2 !.inc C:\\Users\\Astri\\Documents\\LTspice\\irfb7546pbf.spi
TEXT -520 88 Left 2 !.parameter vref=2.5V
