Version 4
SHEET 1 880 680
WIRE 64 -224 -176 -224
WIRE 288 -224 64 -224
WIRE -176 -144 -176 -224
WIRE -128 -144 -176 -144
WIRE 288 -64 288 -224
WIRE 288 -64 256 -64
WIRE 304 -64 288 -64
WIRE -96 -48 -96 -64
WIRE 192 -48 160 -48
WIRE -48 -32 -48 -144
WIRE -48 -32 -64 -32
WIRE 304 -32 256 -32
WIRE -176 -16 -176 -144
WIRE -128 -16 -176 -16
WIRE 112 0 112 -32
WIRE 112 0 -64 0
WIRE -96 16 -96 0
WIRE 304 64 304 48
WIRE 112 96 112 80
WIRE 16 176 16 160
WIRE -112 352 -112 336
FLAG 16 160 v+
FLAG 16 256 v-
FLAG 224 -80 v+
FLAG 64 -224 fb
FLAG 160 -48 out
FLAG 112 -128 v+
FLAG 224 -16 v-
FLAG -96 -64 v+
FLAG -96 16 v-
FLAG 112 96 v-
FLAG 304 64 v-
FLAG 384 -64 v-
FLAG -112 336 v-
FLAG -112 352 0
FLAG 32 -32 v-
SYMBOL voltage 16 160 R0
WINDOW 3 24 44 Left 2
WINDOW 123 0 0 Left 2
WINDOW 39 0 0 Left 2
SYMATTR InstName V1
SYMATTR Value 3
SYMBOL voltage 304 -48 R0
WINDOW 123 0 0 Left 2
WINDOW 39 0 0 Left 2
SYMATTR InstName V3
SYMATTR Value 1.65
SYMBOL res 400 -80 R90
WINDOW 0 0 56 VBottom 2
WINDOW 3 32 56 VTop 2
SYMATTR InstName R2
SYMATTR Value 1k
SYMBOL nmos 160 -128 M0
WINDOW 3 54 58 Left 2
SYMATTR InstName M1
SYMATTR Value IRFH5104
SYMBOL res 96 -16 R0
SYMATTR InstName R1
SYMATTR Value 10k
SYMBOL res -32 -160 R90
WINDOW 0 0 56 VBottom 2
WINDOW 3 32 54 VTop 2
SYMATTR InstName R3
SYMATTR Value 100k
SYMBOL res 48 -48 R90
WINDOW 0 0 56 VBottom 2
WINDOW 3 32 56 VTop 2
SYMATTR InstName R5
SYMATTR Value 100k
SYMBOL Opamps\\LT1001 224 -112 M0
SYMATTR InstName U1
SYMBOL Opamps\\LT1001 -96 -80 M0
SYMATTR InstName U2
TEXT -36 408 Left 2 !.dc v3 0 2.5 
