Version 4
SHEET 1 880 680
WIRE -80 -144 -176 -144
WIRE -176 -112 -176 -144
WIRE -144 -112 -176 -112
WIRE -80 -96 -80 -144
WIRE -48 -96 -80 -96
WIRE -144 -80 -240 -80
WIRE 192 -48 192 -64
WIRE 320 -48 192 -48
WIRE -240 16 -240 0
WIRE 64 32 64 16
WIRE 32 48 16 48
WIRE 192 48 192 32
WIRE 112 64 96 64
WIRE 144 64 112 64
WIRE 320 64 320 -48
WIRE -112 80 -144 80
WIRE 32 80 -32 80
WIRE -32 144 -32 80
WIRE 0 144 -32 144
WIRE 112 144 112 64
WIRE 112 144 80 144
WIRE -144 176 -144 160
WIRE 192 176 192 144
WIRE 320 176 320 144
WIRE 320 176 192 176
WIRE 160 304 160 272
FLAG 192 -64 cm
FLAG 64 96 sup+
FLAG 64 16 sup-
FLAG 160 304 0
FLAG 16 48 cm
FLAG -112 -128 sup+
FLAG -144 176 cm
FLAG -240 16 sup-
FLAG -240 -160 sup+
FLAG 160 272 sup-
FLAG -48 -96 cm
FLAG -368 160 sup-
FLAG -368 80 sup+
FLAG -112 -64 sup-
SYMBOL pmos 144 144 M180
SYMATTR InstName M1
SYMBOL voltage 320 48 R0
WINDOW 123 0 0 Left 2
WINDOW 39 0 0 Left 2
SYMATTR InstName V1
SYMATTR Value 40
SYMBOL Opamps\\UniversalOpamp2 64 64 M180
SYMATTR InstName U1
SYMBOL res 96 128 R90
WINDOW 0 0 56 VBottom 2
WINDOW 3 32 56 VTop 2
SYMATTR InstName R2
SYMATTR Value 1k
SYMBOL res -16 64 R90
WINDOW 0 0 56 VBottom 2
WINDOW 3 32 56 VTop 2
SYMATTR InstName R3
SYMATTR Value 1k
SYMBOL voltage -144 64 R0
WINDOW 123 0 0 Left 2
WINDOW 39 0 0 Left 2
SYMATTR InstName V3
SYMATTR Value 5
SYMBOL res 176 -64 R0
SYMATTR InstName R1
SYMATTR Value 100m
SYMBOL Opamps\\UniversalOpamp2 -112 -96 R0
SYMATTR InstName U2
SYMBOL res -256 -96 R0
SYMATTR InstName R4
SYMATTR Value 1k
SYMBOL res -256 -176 R0
SYMATTR InstName R5
SYMATTR Value 1k
SYMBOL voltage -368 64 R0
WINDOW 123 0 0 Left 2
WINDOW 39 0 0 Left 2
SYMATTR InstName V2
SYMATTR Value 10
TEXT -386 360 Left 2 !.dc v3 0 5 10m
