Version 4
SHEET 1 1348 1488
WIRE 48 16 32 16
WIRE 512 64 384 64
WIRE 736 80 736 64
WIRE 128 112 128 96
WIRE 32 128 32 16
WIRE 96 128 32 128
WIRE 432 128 416 128
WIRE 192 144 192 16
WIRE 192 144 160 144
WIRE 224 144 192 144
WIRE 336 144 304 144
WIRE 96 160 -48 160
WIRE 512 160 512 64
WIRE 32 192 32 128
WIRE 128 192 128 176
WIRE 1248 208 1088 208
WIRE 272 224 240 224
WIRE 272 272 272 224
WIRE 384 272 384 160
WIRE 384 272 352 272
WIRE 272 288 272 272
WIRE 272 288 240 288
WIRE 32 304 32 272
WIRE 112 304 32 304
WIRE 176 304 112 304
WIRE 272 320 240 320
WIRE 208 352 208 336
WIRE 272 352 272 320
WIRE 384 352 352 352
WIRE 512 352 512 240
WIRE 512 352 384 352
WIRE 112 400 112 304
WIRE 160 400 112 400
WIRE 272 400 272 352
WIRE 272 400 240 400
WIRE 992 464 848 464
WIRE 48 496 32 496
WIRE 208 496 192 496
WIRE 848 528 848 464
WIRE 880 528 848 528
WIRE 512 544 384 544
WIRE 992 544 992 464
WIRE 992 544 944 544
WIRE 1040 544 992 544
WIRE 880 560 768 560
WIRE 128 592 128 576
WIRE 32 608 32 496
WIRE 96 608 32 608
WIRE 432 608 416 608
WIRE 208 624 208 496
WIRE 208 624 160 624
WIRE 224 624 208 624
WIRE 336 624 304 624
WIRE 96 640 -48 640
WIRE 512 640 512 544
WIRE 128 672 128 656
WIRE 32 704 32 608
WIRE 272 704 240 704
WIRE 272 752 272 704
WIRE 384 752 384 640
WIRE 384 752 352 752
WIRE 272 768 272 752
WIRE 272 768 240 768
WIRE 112 784 32 784
WIRE 176 784 112 784
WIRE 272 800 240 800
WIRE 208 832 208 816
WIRE 272 832 272 800
WIRE 384 832 352 832
WIRE 512 832 512 720
WIRE 512 832 384 832
WIRE 112 880 112 784
WIRE 160 880 112 880
WIRE 272 880 272 832
WIRE 272 880 240 880
FLAG 736 64 +V
FLAG 128 96 +V
FLAG 208 352 +V
FLAG 128 576 +V
FLAG 208 832 +V
FLAG -48 160 ctrl
IOPIN -48 160 In
FLAG -48 640 ctrl
IOPIN -48 640 In
FLAG 1248 208 ctrl
IOPIN 1248 208 In
FLAG 1088 128 +V
FLAG 912 512 +V
FLAG 768 480 +V
FLAG 1088 288 vgnd
FLAG 1040 544 vgnd
FLAG 768 640 0
FLAG 912 576 0
FLAG 736 160 0
FLAG 128 192 0
FLAG 208 272 0
FLAG 160 224 vgnd
FLAG 128 672 0
FLAG 208 752 0
FLAG 160 704 vgnd
SYMBOL res 320 128 R90
WINDOW 0 0 56 VBottom 2
WINDOW 3 32 56 VTop 2
SYMATTR InstName R1
SYMATTR Value 75
SYMBOL res 368 256 R0
SYMATTR InstName R2
SYMATTR Value 0.1
SYMBOL res 368 336 R90
WINDOW 0 0 56 VBottom 2
WINDOW 3 32 56 VTop 2
SYMATTR InstName R3
SYMATTR Value 1.2k
SYMBOL res 368 256 R90
WINDOW 0 0 56 VBottom 2
WINDOW 3 32 56 VTop 2
SYMATTR InstName R4
SYMATTR Value 1.2k
SYMBOL res 256 384 R90
WINDOW 0 0 56 VBottom 2
WINDOW 3 32 56 VTop 2
SYMATTR InstName R5
SYMATTR Value 15k
SYMBOL res 256 208 R90
WINDOW 0 0 56 VBottom 2
WINDOW 3 -15 11 VTop 2
SYMATTR InstName R6
SYMATTR Value 15k
SYMBOL voltage 736 64 R0
WINDOW 123 0 0 Left 2
WINDOW 39 0 0 Left 2
WINDOW 3 -116 141 Left 2
SYMATTR Value PULSE(0 20 4m 0.32u 0.32u 5m 10m 4)
SYMATTR InstName V1
SYMBOL res 320 608 R90
WINDOW 0 0 56 VBottom 2
WINDOW 3 32 56 VTop 2
SYMATTR InstName R9
SYMATTR Value 75
SYMBOL res 368 736 R0
SYMATTR InstName R10
SYMATTR Value 0.1
SYMBOL res 368 816 R90
WINDOW 0 0 56 VBottom 2
WINDOW 3 32 56 VTop 2
SYMATTR InstName R11
SYMATTR Value 1.2k
SYMBOL res 368 736 R90
WINDOW 0 0 56 VBottom 2
WINDOW 3 32 56 VTop 2
SYMATTR InstName R12
SYMATTR Value 1.2k
SYMBOL res 256 688 R90
WINDOW 0 0 56 VBottom 2
WINDOW 3 -15 11 VTop 2
SYMATTR InstName R13
SYMATTR Value 15k
SYMBOL nmos 336 544 R0
SYMATTR InstName M2
SYMATTR Value irfb7546pbf
SYMATTR Prefix X
SYMBOL res 16 688 R0
SYMATTR InstName R14
SYMATTR Value 8.2k
SYMBOL res 208 480 R90
WINDOW 0 0 56 VBottom 2
WINDOW 3 32 56 VTop 2
SYMATTR InstName R15
SYMATTR Value 75
SYMBOL cap 112 480 R90
WINDOW 0 0 32 VBottom 2
WINDOW 3 32 32 VTop 2
SYMATTR InstName C2
SYMATTR Value 150n
SYMBOL res 256 864 R90
WINDOW 0 0 56 VBottom 2
WINDOW 3 32 56 VTop 2
SYMATTR InstName R16
SYMATTR Value 15k
SYMBOL Opamps\\LT1014 128 80 R0
SYMATTR InstName U1
SYMBOL nmos 336 64 R0
SYMATTR InstName M1
SYMATTR Value irfb7546pbf
SYMATTR Prefix X
SYMBOL Opamps\\LT1014 128 560 R0
SYMATTR InstName U5
SYMBOL Opamps\\LT1014 208 368 R180
SYMATTR InstName U2
SYMBOL Opamps\\LT1014 208 848 R180
SYMATTR InstName U4
SYMBOL res 1072 112 R0
SYMATTR InstName R25
SYMATTR Value 43k
SYMBOL res 1072 192 R0
SYMATTR InstName R26
SYMATTR Value 5k
SYMBOL voltage 512 144 R0
WINDOW 123 0 0 Left 2
WINDOW 39 0 0 Left 2
SYMATTR InstName V2
SYMATTR Value 20
SYMBOL voltage 512 624 R0
WINDOW 123 0 0 Left 2
WINDOW 39 0 0 Left 2
SYMATTR InstName V3
SYMATTR Value 9
SYMBOL res 208 0 R90
WINDOW 0 0 56 VBottom 2
WINDOW 3 32 56 VTop 2
SYMATTR InstName R7
SYMATTR Value 75
SYMBOL cap 112 0 R90
WINDOW 0 0 32 VBottom 2
WINDOW 3 32 32 VTop 2
SYMATTR InstName C1
SYMATTR Value 100n
SYMBOL res 16 176 R0
SYMATTR InstName R8
SYMATTR Value 8.2k
SYMBOL Opamps\\LT1014 912 480 R0
SYMATTR InstName U3
SYMBOL res 752 464 R0
SYMATTR InstName R17
SYMATTR Value 15k
SYMBOL res 752 544 R0
SYMATTR InstName R18
SYMATTR Value 15k
TEXT 56 952 Left 2 !.tran 40m
TEXT 272 8 Left 2 !.inc C:\\Users\\Astri\\Documents\\LTspice\\irfb7546pbf.spi
