Version 4
SHEET 1 952 1024
WIRE 48 16 32 16
WIRE 208 16 192 16
WIRE 512 64 384 64
WIRE 736 80 736 64
WIRE 128 112 128 96
WIRE 32 128 32 16
WIRE 96 128 32 128
WIRE 432 128 416 128
WIRE 208 144 208 16
WIRE 208 144 160 144
WIRE 224 144 208 144
WIRE 336 144 304 144
WIRE 96 160 -48 160
WIRE 512 160 512 64
WIRE 128 192 128 176
WIRE 832 208 704 208
WIRE 32 224 32 128
WIRE 192 224 176 224
WIRE 272 272 272 224
WIRE 384 272 384 160
WIRE 384 272 352 272
WIRE 272 288 272 272
WIRE 272 288 240 288
WIRE 688 288 640 288
WIRE 704 288 704 208
WIRE 736 288 704 288
WIRE 112 304 32 304
WIRE 176 304 112 304
WIRE 832 304 832 208
WIRE 832 304 800 304
WIRE 848 304 832 304
WIRE 272 320 240 320
WIRE 688 320 688 288
WIRE 736 320 688 320
WIRE 208 352 208 336
WIRE 272 352 272 320
WIRE 384 352 352 352
WIRE 512 352 512 240
WIRE 512 352 384 352
WIRE 112 432 112 304
WIRE 160 432 112 432
WIRE 272 432 272 352
WIRE 272 432 240 432
WIRE 112 560 96 560
WIRE 272 560 256 560
WIRE 576 608 448 608
WIRE 192 656 192 640
WIRE 96 672 96 560
WIRE 160 672 96 672
WIRE 496 672 480 672
WIRE 272 688 272 560
WIRE 272 688 224 688
WIRE 288 688 272 688
WIRE 400 688 368 688
WIRE 160 704 16 704
WIRE 576 704 576 608
WIRE 192 736 192 720
WIRE 96 768 96 672
WIRE 256 768 240 768
WIRE 336 816 336 768
WIRE 448 816 448 704
WIRE 448 816 416 816
WIRE 336 832 336 816
WIRE 336 832 304 832
WIRE 176 848 96 848
WIRE 240 848 176 848
WIRE 336 864 304 864
WIRE 272 896 272 880
WIRE 336 896 336 864
WIRE 448 896 416 896
WIRE 576 896 576 784
WIRE 576 896 448 896
WIRE 176 976 176 848
WIRE 224 976 176 976
WIRE 336 976 336 896
WIRE 336 976 304 976
FLAG 128 192 0
FLAG 208 272 0
FLAG 736 160 0
FLAG 736 64 +V
FLAG 128 96 +V
FLAG 208 352 +V
FLAG 176 224 vgnd
FLAG 848 304 vgnd
FLAG 768 336 0
FLAG 768 272 +V
FLAG 640 368 0
FLAG 640 208 +V
FLAG -48 240 vgnd
FLAG 192 736 0
FLAG 272 816 0
FLAG 192 640 +V
FLAG 272 896 +V
FLAG 240 768 vgnd
FLAG 16 784 vgnd
SYMBOL res 320 128 R90
WINDOW 0 0 56 VBottom 2
WINDOW 3 32 56 VTop 2
SYMATTR InstName R1
SYMATTR Value 47
SYMBOL res 368 256 R0
SYMATTR InstName R2
SYMATTR Value 0.1
SYMBOL res 368 336 R90
WINDOW 0 0 56 VBottom 2
WINDOW 3 32 56 VTop 2
SYMATTR InstName R3
SYMATTR Value 10k
SYMBOL res 368 256 R90
WINDOW 0 0 56 VBottom 2
WINDOW 3 32 56 VTop 2
SYMATTR InstName R4
SYMATTR Value 10k
SYMBOL res 256 416 R90
WINDOW 0 0 56 VBottom 2
WINDOW 3 32 56 VTop 2
SYMATTR InstName R5
SYMATTR Value 30k
SYMBOL res 288 208 R90
WINDOW 0 0 56 VBottom 2
WINDOW 3 -15 11 VTop 2
SYMATTR InstName R6
SYMATTR Value 30k
SYMBOL voltage -48 144 R0
WINDOW 123 0 0 Left 2
WINDOW 39 0 0 Left 2
WINDOW 3 -364 -22 Left 2
SYMATTR Value PULSE(0 2.5 0 0.32u 0.32u 5m 10m)
SYMATTR InstName V1
SYMBOL voltage 512 144 R0
WINDOW 0 24 96 Left 2
WINDOW 3 24 16 Left 2
WINDOW 123 0 0 Left 2
WINDOW 39 0 0 Left 2
SYMATTR InstName V2
SYMATTR Value 5
SYMBOL voltage 736 64 R0
WINDOW 123 0 0 Left 2
WINDOW 39 0 0 Left 2
WINDOW 0 38 30 Left 2
WINDOW 3 41 60 Left 2
SYMATTR InstName V3
SYMATTR Value 15
SYMBOL nmos 336 64 R0
SYMATTR InstName M1
SYMATTR Value irfb7546pbf
SYMATTR Prefix X
SYMBOL res 16 208 R0
SYMATTR InstName R7
SYMATTR Value 10k
SYMBOL res 208 0 R90
WINDOW 0 0 56 VBottom 2
WINDOW 3 32 56 VTop 2
SYMATTR InstName R8
SYMATTR Value 10
SYMBOL cap 112 0 R90
WINDOW 0 0 32 VBottom 2
WINDOW 3 32 32 VTop 2
SYMATTR InstName C1
SYMATTR Value 68n
SYMBOL Opamps\\LT1014 128 80 R0
SYMATTR InstName U1
SYMBOL Opamps\\LT1014 208 368 R180
WINDOW 0 19 50 Left 2
SYMATTR InstName U2
SYMBOL Opamps\\LT1014 768 240 R0
SYMATTR InstName U3
SYMBOL res 624 192 R0
SYMATTR InstName R9
SYMATTR Value 10k
SYMBOL res 624 272 R0
SYMATTR InstName R10
SYMATTR Value 10k
SYMBOL res 384 672 R90
WINDOW 0 0 56 VBottom 2
WINDOW 3 32 56 VTop 2
SYMATTR InstName R11
SYMATTR Value 47
SYMBOL res 432 800 R0
SYMATTR InstName R12
SYMATTR Value 0.1
SYMBOL res 432 880 R90
WINDOW 0 0 56 VBottom 2
WINDOW 3 32 56 VTop 2
SYMATTR InstName R13
SYMATTR Value 10k
SYMBOL res 432 800 R90
WINDOW 0 0 56 VBottom 2
WINDOW 3 32 56 VTop 2
SYMATTR InstName R14
SYMATTR Value 10k
SYMBOL res 320 960 R90
WINDOW 0 0 56 VBottom 2
WINDOW 3 32 56 VTop 2
SYMATTR InstName R15
SYMATTR Value 30k
SYMBOL res 352 752 R90
WINDOW 0 0 56 VBottom 2
WINDOW 3 -15 11 VTop 2
SYMATTR InstName R16
SYMATTR Value 30k
SYMBOL voltage 16 688 R0
WINDOW 123 0 0 Left 2
WINDOW 39 0 0 Left 2
WINDOW 3 -364 -22 Left 2
SYMATTR Value PULSE(0 2.5 0 0.32u 0.32u 5m 10m)
SYMATTR InstName V4
SYMBOL voltage 576 688 R0
WINDOW 0 24 96 Left 2
WINDOW 3 24 16 Left 2
WINDOW 123 0 0 Left 2
WINDOW 39 0 0 Left 2
SYMATTR InstName V5
SYMATTR Value 9
SYMBOL nmos 400 608 R0
SYMATTR InstName M2
SYMATTR Value irfb7546pbf
SYMATTR Prefix X
SYMBOL res 80 752 R0
SYMATTR InstName R17
SYMATTR Value 10k
SYMBOL res 272 544 R90
WINDOW 0 0 56 VBottom 2
WINDOW 3 32 56 VTop 2
SYMATTR InstName R18
SYMATTR Value 10
SYMBOL cap 176 544 R90
WINDOW 0 0 32 VBottom 2
WINDOW 3 32 32 VTop 2
SYMATTR InstName C2
SYMATTR Value 68n
SYMBOL Opamps\\LT1014 192 624 R0
SYMATTR InstName U4
SYMBOL Opamps\\LT1014 272 912 R180
WINDOW 0 19 50 Left 2
SYMATTR InstName U5
TEXT -184 320 Left 2 !.tran 50m
TEXT 40 -104 Left 2 !.inc C:\\Users\\Astri\\Documents\\LTspice\\irfb7546pbf.spi
