Version 4
SHEET 1 952 1024
WIRE 48 16 32 16
WIRE 208 16 192 16
WIRE 512 64 384 64
WIRE -48 80 -208 80
WIRE 736 80 736 64
WIRE 128 112 128 96
WIRE 32 128 32 16
WIRE 96 128 32 128
WIRE 432 128 416 128
WIRE 208 144 208 16
WIRE 208 144 160 144
WIRE 224 144 208 144
WIRE 336 144 304 144
WIRE 96 160 -48 160
WIRE 512 160 512 64
WIRE 128 192 128 176
WIRE 832 208 704 208
WIRE 32 224 32 128
WIRE 192 224 176 224
WIRE 272 272 272 224
WIRE 384 272 384 160
WIRE 384 272 352 272
WIRE 272 288 272 272
WIRE 272 288 240 288
WIRE 688 288 640 288
WIRE 704 288 704 208
WIRE 736 288 704 288
WIRE 112 304 32 304
WIRE 176 304 112 304
WIRE 832 304 832 208
WIRE 832 304 800 304
WIRE 848 304 832 304
WIRE 272 320 240 320
WIRE 688 320 688 288
WIRE 736 320 688 320
WIRE 208 352 208 336
WIRE 272 352 272 320
WIRE 384 352 352 352
WIRE 512 352 512 240
WIRE 512 352 384 352
WIRE 112 432 112 304
WIRE 160 432 112 432
WIRE 272 432 272 352
WIRE 272 432 240 432
WIRE 80 560 64 560
WIRE 240 560 224 560
WIRE 544 608 416 608
WIRE -16 624 -176 624
WIRE 160 656 160 640
WIRE 64 672 64 560
WIRE 128 672 64 672
WIRE 464 672 448 672
WIRE 240 688 240 560
WIRE 240 688 192 688
WIRE 256 688 240 688
WIRE 368 688 336 688
WIRE 128 704 -16 704
WIRE 544 704 544 608
WIRE 160 736 160 720
WIRE 64 768 64 672
WIRE 224 768 208 768
WIRE 304 816 304 768
WIRE 416 816 416 704
WIRE 416 816 384 816
WIRE 304 832 304 816
WIRE 304 832 272 832
WIRE 144 848 64 848
WIRE 208 848 144 848
WIRE 304 864 272 864
WIRE 240 896 240 880
WIRE 304 896 304 864
WIRE 416 896 384 896
WIRE 544 896 544 784
WIRE 544 896 416 896
WIRE 144 976 144 848
WIRE 192 976 144 976
WIRE 304 976 304 896
WIRE 304 976 272 976
FLAG 128 192 0
FLAG 208 272 0
FLAG 736 160 0
FLAG 736 64 +V
FLAG 128 96 +V
FLAG 208 352 +V
FLAG 176 224 vgnd
FLAG 848 304 vgnd
FLAG 768 336 0
FLAG 768 272 +V
FLAG 640 368 0
FLAG 640 208 +V
FLAG -208 160 vgnd
FLAG -48 240 vgnd
FLAG 160 736 0
FLAG 240 816 0
FLAG 160 640 +V
FLAG 240 896 +V
FLAG 208 768 vgnd
FLAG -176 704 vgnd
FLAG -16 784 vgnd
SYMBOL res 320 128 R90
WINDOW 0 0 56 VBottom 2
WINDOW 3 32 56 VTop 2
SYMATTR InstName R1
SYMATTR Value 75
SYMBOL res 368 256 R0
SYMATTR InstName R2
SYMATTR Value 0.1
SYMBOL res 368 336 R90
WINDOW 0 0 56 VBottom 2
WINDOW 3 32 56 VTop 2
SYMATTR InstName R3
SYMATTR Value 1.2k
SYMBOL res 368 256 R90
WINDOW 0 0 56 VBottom 2
WINDOW 3 32 56 VTop 2
SYMATTR InstName R4
SYMATTR Value 1.2k
SYMBOL res 256 416 R90
WINDOW 0 0 56 VBottom 2
WINDOW 3 32 56 VTop 2
SYMATTR InstName R5
SYMATTR Value 15k
SYMBOL res 288 208 R90
WINDOW 0 0 56 VBottom 2
WINDOW 3 -15 11 VTop 2
SYMATTR InstName R6
SYMATTR Value 15k
SYMBOL voltage -208 64 R0
WINDOW 123 0 0 Left 2
WINDOW 39 0 0 Left 2
WINDOW 3 -364 -22 Left 2
SYMATTR Value PULSE(0 10 0 0.32u 0.32u 5m 10m)
SYMATTR InstName V1
SYMBOL voltage 512 144 R0
WINDOW 0 24 96 Left 2
WINDOW 3 24 16 Left 2
WINDOW 123 0 0 Left 2
WINDOW 39 0 0 Left 2
SYMATTR InstName V2
SYMATTR Value 9
SYMBOL voltage 736 64 R0
WINDOW 123 0 0 Left 2
WINDOW 39 0 0 Left 2
WINDOW 0 38 30 Left 2
WINDOW 3 41 60 Left 2
SYMATTR InstName V3
SYMATTR Value 10
SYMBOL nmos 336 64 R0
SYMATTR InstName M1
SYMATTR Value irfb7546pbf
SYMATTR Prefix X
SYMBOL res 16 208 R0
SYMATTR InstName R7
SYMATTR Value 8.2k
SYMBOL res 208 0 R90
WINDOW 0 0 56 VBottom 2
WINDOW 3 32 56 VTop 2
SYMATTR InstName R8
SYMATTR Value 75
SYMBOL cap 112 0 R90
WINDOW 0 0 32 VBottom 2
WINDOW 3 32 32 VTop 2
SYMATTR InstName C1
SYMATTR Value 150n
SYMBOL Opamps\\LT1014 128 80 R0
SYMATTR InstName U1
SYMBOL Opamps\\LT1014 208 368 R180
WINDOW 0 19 50 Left 2
SYMATTR InstName U2
SYMBOL Opamps\\LT1014 768 240 R0
SYMATTR InstName U3
SYMBOL res 624 192 R0
SYMATTR InstName R9
SYMATTR Value 8.2k
SYMBOL res 624 272 R0
SYMATTR InstName R10
SYMATTR Value 8.2k
SYMBOL res -64 64 R0
SYMATTR InstName R11
SYMATTR Value 43k
SYMBOL res -64 144 R0
SYMATTR InstName R12
SYMATTR Value 5k
SYMBOL res 352 672 R90
WINDOW 0 0 56 VBottom 2
WINDOW 3 32 56 VTop 2
SYMATTR InstName R13
SYMATTR Value 75
SYMBOL res 400 800 R0
SYMATTR InstName R14
SYMATTR Value 0.1
SYMBOL res 400 880 R90
WINDOW 0 0 56 VBottom 2
WINDOW 3 32 56 VTop 2
SYMATTR InstName R15
SYMATTR Value 1.2k
SYMBOL res 400 800 R90
WINDOW 0 0 56 VBottom 2
WINDOW 3 32 56 VTop 2
SYMATTR InstName R16
SYMATTR Value 1.2k
SYMBOL res 288 960 R90
WINDOW 0 0 56 VBottom 2
WINDOW 3 32 56 VTop 2
SYMATTR InstName R17
SYMATTR Value 15k
SYMBOL res 320 752 R90
WINDOW 0 0 56 VBottom 2
WINDOW 3 -15 11 VTop 2
SYMATTR InstName R18
SYMATTR Value 15k
SYMBOL voltage -176 608 R0
WINDOW 123 0 0 Left 2
WINDOW 39 0 0 Left 2
WINDOW 3 -364 -22 Left 2
SYMATTR Value PULSE(0 10 0 0.32u 0.32u 5m 10m)
SYMATTR InstName V4
SYMBOL voltage 544 688 R0
WINDOW 0 24 96 Left 2
WINDOW 3 24 16 Left 2
WINDOW 123 0 0 Left 2
WINDOW 39 0 0 Left 2
SYMATTR InstName V5
SYMATTR Value 6
SYMBOL nmos 368 608 R0
SYMATTR InstName M2
SYMATTR Value irfb7546pbf
SYMATTR Prefix X
SYMBOL res 48 752 R0
SYMATTR InstName R19
SYMATTR Value 8.2k
SYMBOL res 240 544 R90
WINDOW 0 0 56 VBottom 2
WINDOW 3 32 56 VTop 2
SYMATTR InstName R20
SYMATTR Value 75
SYMBOL cap 144 544 R90
WINDOW 0 0 32 VBottom 2
WINDOW 3 32 32 VTop 2
SYMATTR InstName C2
SYMATTR Value 150n
SYMBOL Opamps\\LT1014 160 624 R0
SYMATTR InstName U4
SYMBOL Opamps\\LT1014 240 912 R180
WINDOW 0 19 50 Left 2
SYMATTR InstName U5
SYMBOL res -32 608 R0
SYMATTR InstName R21
SYMATTR Value 43k
SYMBOL res -32 688 R0
SYMATTR InstName R22
SYMATTR Value 2.5k
TEXT -184 320 Left 2 !.tran 100m
TEXT 40 -104 Left 2 !.inc C:\\Users\\Astri\\Documents\\LTspice\\irfb7546pbf.spi
