Version 4
SHEET 1 880 680
WIRE 512 64 384 64
WIRE 736 80 736 64
WIRE 128 112 128 96
WIRE 96 128 32 128
WIRE 432 128 416 128
WIRE 224 144 160 144
WIRE 336 144 304 144
WIRE 96 160 -48 160
WIRE 512 160 512 64
WIRE 736 160 688 160
WIRE 128 192 128 176
WIRE 272 224 240 224
WIRE 736 256 736 240
WIRE 272 272 272 224
WIRE 384 272 384 160
WIRE 384 272 352 272
WIRE 272 288 272 272
WIRE 272 288 240 288
WIRE 32 304 32 128
WIRE 112 304 32 304
WIRE 176 304 112 304
WIRE 272 320 240 320
WIRE 208 352 208 336
WIRE 272 352 272 320
WIRE 384 352 352 352
WIRE 512 352 512 240
WIRE 512 352 384 352
WIRE 112 400 112 304
WIRE 160 400 112 400
WIRE 272 400 272 352
WIRE 272 400 240 400
FLAG 160 224 0
FLAG -48 240 0
FLAG 688 160 0
FLAG 736 64 +V
FLAG 736 256 -V
FLAG 128 96 +V
FLAG 128 192 -V
FLAG 208 272 -V
FLAG 208 352 +V
SYMBOL Opamps\\LT1363 128 80 R0
WINDOW 3 18 89 Left 2
SYMATTR InstName U1
SYMBOL Opamps\\LT1679 208 304 R180
SYMATTR InstName U2
SYMBOL res 320 128 R90
WINDOW 0 0 56 VBottom 2
WINDOW 3 32 56 VTop 2
SYMATTR InstName R1
SYMATTR Value 47
SYMBOL res 368 256 R0
SYMATTR InstName R2
SYMATTR Value 0.1
SYMBOL res 368 336 R90
WINDOW 0 0 56 VBottom 2
WINDOW 3 32 56 VTop 2
SYMATTR InstName R3
SYMATTR Value 10k
SYMBOL res 368 256 R90
WINDOW 0 0 56 VBottom 2
WINDOW 3 32 56 VTop 2
SYMATTR InstName R4
SYMATTR Value 10k
SYMBOL res 256 384 R90
WINDOW 0 0 56 VBottom 2
WINDOW 3 32 56 VTop 2
SYMATTR InstName R5
SYMATTR Value 30k
SYMBOL res 256 208 R90
WINDOW 0 0 56 VBottom 2
WINDOW 3 -15 11 VTop 2
SYMATTR InstName R6
SYMATTR Value 30k
SYMBOL voltage -48 144 R0
WINDOW 123 0 0 Left 2
WINDOW 39 0 0 Left 2
WINDOW 3 -364 -22 Left 2
SYMATTR Value PULSE(0 2.5 0 0.32u 0.32u 0.15m 0.3m)
SYMATTR InstName V1
SYMBOL voltage 512 144 R0
WINDOW 0 24 96 Left 2
WINDOW 3 24 16 Left 2
WINDOW 123 0 0 Left 2
WINDOW 39 0 0 Left 2
SYMATTR InstName V2
SYMATTR Value 5
SYMBOL voltage 736 64 R0
WINDOW 123 0 0 Left 2
WINDOW 39 0 0 Left 2
WINDOW 0 38 30 Left 2
WINDOW 3 41 60 Left 2
SYMATTR InstName V3
SYMATTR Value 15
SYMBOL voltage 736 144 R0
WINDOW 0 38 42 Left 2
WINDOW 3 43 72 Left 2
SYMATTR InstName V4
SYMATTR Value 15
SYMBOL nmos 336 64 R0
SYMATTR InstName M1
SYMATTR Value IRFL014
TEXT -184 320 Left 2 !.tran 0 600u 298u
