Version 4
SHEET 1 1272 680
WIRE 736 80 736 64
WIRE 736 160 688 160
WIRE 736 256 736 240
WIRE 544 272 432 272
WIRE 432 368 432 352
WIRE 432 368 176 368
WIRE 432 416 432 368
WIRE 544 432 544 272
WIRE 0 448 -224 448
WIRE 176 496 176 368
WIRE 192 496 176 496
WIRE 384 496 352 496
WIRE 352 512 352 496
WIRE 352 512 256 512
WIRE 544 512 432 512
WIRE 0 528 0 448
WIRE 192 528 0 528
WIRE 544 544 544 512
WIRE 224 560 224 544
WIRE 432 560 432 512
WIRE 432 560 224 560
FLAG 688 160 0
FLAG 736 64 +V
FLAG 736 256 -V
FLAG 544 544 0
FLAG 224 480 +V
FLAG -304 448 0
SYMBOL res 416 256 R0
SYMATTR InstName R2
SYMATTR Value 1k
SYMBOL voltage -208 448 R90
WINDOW 123 0 0 Left 2
WINDOW 39 0 0 Left 2
WINDOW 3 77 -171 VRight 2
SYMATTR Value PULSE(0 5 0 1n 1n 0.15m 0.3m)
SYMATTR InstName V1
SYMBOL voltage 544 416 R0
WINDOW 0 24 96 Left 2
WINDOW 3 24 16 Left 2
WINDOW 123 0 0 Left 2
WINDOW 39 0 0 Left 2
SYMATTR InstName V2
SYMATTR Value 5
SYMBOL voltage 736 64 R0
WINDOW 123 0 0 Left 2
WINDOW 39 0 0 Left 2
WINDOW 0 38 30 Left 2
WINDOW 3 41 60 Left 2
SYMATTR InstName V3
SYMATTR Value 15
SYMBOL voltage 736 144 R0
WINDOW 0 38 42 Left 2
WINDOW 3 43 72 Left 2
SYMATTR InstName V4
SYMATTR Value 15
SYMBOL nmos 384 416 R0
SYMATTR InstName M1
SYMBOL Opamps\\UniversalOpamp2 224 512 R0
SYMATTR InstName U1
TEXT 200 16 Left 2 !.inc IRFB7546PBF.spi
TEXT 736 512 Left 2 !.tran 0 600u 298u
