Version 4
SHEET 1 880 680
WIRE -32 -304 -48 -304
WIRE 96 -224 96 -240
WIRE 96 -224 80 -224
WIRE 192 -208 192 -224
WIRE 320 -208 192 -208
WIRE 48 -192 48 -304
WIRE 48 -192 32 -192
WIRE 96 -192 48 -192
WIRE -208 -176 -304 -176
WIRE -48 -176 -48 -304
WIRE -48 -176 -80 -176
WIRE -32 -176 -48 -176
WIRE 80 -160 80 -224
WIRE 80 -160 32 -160
WIRE -304 -144 -304 -176
WIRE -272 -144 -304 -144
WIRE -208 -128 -208 -176
WIRE -176 -128 -208 -128
WIRE 96 -128 96 -192
WIRE 192 -128 176 -128
WIRE -272 -112 -368 -112
WIRE -80 -64 -80 -176
WIRE 16 -64 0 -64
WIRE 32 -64 16 -64
WIRE -368 -16 -368 -32
WIRE -464 32 -464 0
WIRE 16 48 16 -64
WIRE 32 48 16 48
WIRE 192 48 192 -128
WIRE 112 64 112 -64
WIRE 112 64 96 64
WIRE 144 64 112 64
WIRE 320 64 320 -208
WIRE 32 80 16 80
WIRE 192 176 192 144
WIRE 320 176 320 144
WIRE 320 176 192 176
FLAG 192 -224 cm
FLAG 64 32 sup+
FLAG 64 96 sup-
FLAG -464 32 0
FLAG 16 80 cm
FLAG -240 -160 sup+
FLAG -368 -16 sup-
FLAG -368 -192 sup+
FLAG -464 0 sup-
FLAG -176 -128 cm
FLAG -464 -112 sup-
FLAG -464 -192 sup+
FLAG -240 -96 sup-
FLAG 0 -208 sup+
FLAG 0 -144 sup-
FLAG 96 -320 cm
SYMBOL pmos 144 144 M180
SYMATTR InstName M1
SYMATTR Value IRF7220
SYMBOL voltage 320 48 R0
WINDOW 123 0 0 Left 2
WINDOW 39 0 0 Left 2
SYMATTR InstName V1
SYMATTR Value 5
SYMBOL Opamps\\UniversalOpamp2 64 64 R0
SYMATTR InstName U1
SYMBOL res 128 -80 R90
WINDOW 0 -3 56 VBottom 2
WINDOW 3 32 56 VTop 2
SYMATTR InstName R2
SYMATTR Value 1k
SYMBOL res 16 -80 R90
WINDOW 0 0 56 VBottom 2
WINDOW 3 32 56 VTop 2
SYMATTR InstName R3
SYMATTR Value 1k
SYMBOL voltage 96 -224 M180
WINDOW 123 0 0 Left 2
WINDOW 39 0 0 Left 2
SYMATTR InstName V3
SYMATTR Value 2.5
SYMBOL res 176 -224 R0
SYMATTR InstName R1
SYMATTR Value 1
SYMBOL Opamps\\UniversalOpamp2 -240 -128 R0
SYMATTR InstName U2
SYMBOL res -384 -128 R0
SYMATTR InstName R4
SYMATTR Value 1k
SYMBOL res -384 -208 R0
SYMATTR InstName R5
SYMATTR Value 1k
SYMBOL voltage -464 -208 R0
WINDOW 123 0 0 Left 2
WINDOW 39 0 0 Left 2
SYMATTR InstName V2
SYMATTR Value 5
SYMBOL Opamps\\UniversalOpamp2 0 -176 M0
SYMATTR InstName U3
SYMBOL res 192 -144 R90
WINDOW 0 0 56 VBottom 2
WINDOW 3 32 56 VTop 2
SYMATTR InstName R6
SYMATTR Value 220k
SYMBOL res 64 -320 R90
WINDOW 0 0 56 VBottom 2
WINDOW 3 32 56 VTop 2
SYMATTR InstName R7
SYMATTR Value 1k
SYMBOL voltage 432 -224 M0
WINDOW 123 0 0 Left 2
WINDOW 39 0 0 Left 2
SYMATTR InstName V4
SYMATTR Value 2.5
TEXT -504 96 Left 2 !.dc v3 0 5
