Version 4
SHEET 1 880 680
WIRE 16 96 0 96
WIRE 128 96 96 96
WIRE 400 96 288 96
WIRE -208 112 -208 96
WIRE 288 112 288 96
WIRE 400 128 400 96
WIRE -96 176 -112 176
WIRE 0 176 0 96
WIRE 0 176 -16 176
WIRE 16 176 0 176
WIRE 128 192 128 96
WIRE 128 192 80 192
WIRE 144 192 128 192
WIRE 240 192 224 192
WIRE 16 208 -144 208
WIRE 288 224 288 208
WIRE -144 304 -144 288
WIRE 400 304 400 208
WIRE 400 304 288 304
WIRE 400 352 400 304
FLAG -144 304 0
FLAG -208 112 0
FLAG -208 16 V+
FLAG 48 160 V+
FLAG 48 224 0
FLAG 400 352 0
FLAG -112 176 0
SYMBOL voltage -144 192 R0
WINDOW 123 0 0 Left 2
WINDOW 39 0 0 Left 2
SYMATTR InstName Vref
SYMATTR Value 5
SYMBOL nmos 240 112 R0
SYMATTR InstName M1
SYMATTR Value IRF2807
SYMBOL res 0 160 R90
WINDOW 0 0 56 VBottom 2
WINDOW 3 32 56 VTop 2
SYMATTR InstName R2
SYMATTR Value 1k
SYMBOL res 112 80 R90
WINDOW 0 0 56 VBottom 2
WINDOW 3 32 56 VTop 2
SYMATTR InstName R3
SYMATTR Value 1k
SYMBOL voltage -208 0 R0
WINDOW 123 0 0 Left 2
WINDOW 39 0 0 Left 2
WINDOW 3 42 57 Left 2
SYMATTR InstName Vgate
SYMATTR Value 10
SYMBOL Opamps\\UniversalOpamp2 48 192 R0
SYMATTR InstName U2
SYMBOL voltage 400 112 R0
WINDOW 123 0 0 Left 2
WINDOW 39 0 0 Left 2
SYMATTR InstName Vload
SYMATTR Value 5
SYMBOL res 240 176 R90
WINDOW 0 0 56 VBottom 2
WINDOW 3 32 56 VTop 2
SYMATTR InstName R7
SYMATTR Value 100
SYMBOL res 272 208 R0
SYMATTR InstName R1
SYMATTR Value 1k
TEXT 232 56 Left 2 !.include LTC.lib
TEXT -176 328 Left 2 !.dc Vref 0 5 
